10

H 0.789317667 -0.581229806 -1.466804743
C 0.350760788 1.486142993 0.889070153
H 1.174311161 0.743911684 0.950611949
C 0.216408148 -1.092514396 -0.685649335
O -0.608791232 1.121561646 -0.002673098
O -2.034864426 -0.603889287 -0.003519506
O 0.304234385 2.526094913 1.479014635
C -0.908819556 -0.242752686 -0.198614210
H 0.911560357 -1.329249740 0.121312149
H -0.194117293 -2.028075695 -1.082748175