10

H -0.899489164 -0.888146818 -1.975063562
H -0.421493977 0.794517934 -1.562799215
C 0.229471311 0.193054155 1.152188778
H 1.519101620 1.505949855 1.656163454
O -1.443229675 -1.301504374 0.487664461
N 1.100610971 1.058643818 0.838329673
H 0.795529902 -0.461352587 -1.537021756
C -0.261121333 -0.269214928 -1.339590788
H -0.037724104 -0.099023327 2.170541525
C -0.581655502 -0.532923758 0.109587505