10

N 0.790962100 0.879194260 0.662323833
O -0.917223632 0.059389032 1.821544290
C 0.760684669 -0.530441642 -2.622007370
C -0.960714877 -0.502314746 0.574958503
C 0.452261329 -0.284289300 -1.486485124
H 1.035347939 -0.753643215 -3.628034592
C 0.090091974 -0.004734760 -0.147728622
H -1.750135064 -1.197769046 0.382925957
H 0.353429317 1.449861526 2.667610645
C 0.145296201 0.884747922 1.774892211