10

N 0.502282977 -1.067401767 -0.696294248
C -0.319587916 -0.132051900 1.280326962
O -0.366983533 2.345612049 -1.155763149
O -0.508029699 1.036832094 0.694362760
F 0.633250713 0.172459885 -2.556212425
F -0.692573130 -0.148130745 2.537158012
C 0.328686118 0.048897464 -1.280411601
F 0.419912189 -2.337748289 1.211852193
C 0.199402422 -1.182242393 0.622447133
C -0.196360171 1.263773203 -0.657465398