10

H -1.770746827 0.766349316 1.339056492
C -1.018147469 -1.006513596 0.443327338
C 0.012202764 0.917482913 0.198485926
C 1.868656397 0.016051782 -1.231163859
N 2.841751575 0.129538924 -1.846393585
N -1.068808317 0.314383447 0.783542752
N 0.012410877 -1.294474483 -0.308182001
H -1.759373188 -1.713017702 0.789066613
H 0.214590877 1.965594053 0.305842906
C 0.667463362 -0.095394537 -0.473582327