10

C 0.306524217 0.762042582 0.827110410
H -0.880159795 -1.172880173 -0.097830676
N -1.120437980 2.815172195 0.037710775
O 0.801024735 0.008667598 -0.263308853
C -0.494433284 1.907940507 0.376429290
N 0.532315671 -1.876144648 -1.492032290
H -0.285689861 0.144349039 1.519156337
H -0.111595653 -2.647386312 -1.651363969
C 0.075041801 -1.080259323 -0.629514992
H 1.177410245 1.138497829 1.373644114