10

H 1.810472131 -0.874179840 0.389994830
C 0.181854695 0.761923671 -0.728119791
C -0.066897891 -0.500794470 0.112363137
H 1.050396681 0.600470841 -1.381317854
N -2.152311087 -0.104684152 1.674136996
H -0.329051197 -1.324905634 -0.559769988
H 0.381554544 1.620890737 -0.089811951
H -0.679492414 0.976451993 -1.360913873
O 1.020998120 -0.871754050 0.940982163
C -1.217523813 -0.283419013 1.002456188