10

N -0.346622258 -0.392525345 -0.615103304
C -1.917806387 1.350147605 -1.209076881
N -0.332993627 1.455637097 0.658762574
N 0.567480028 -0.423635334 0.351595193
H 2.165266991 -1.236028314 1.390043497
N 0.574507475 0.674057722 1.117361665
C -0.882701576 0.798858285 -0.408044547
O 1.451765299 -2.520844936 -0.007626241
N -2.759484053 1.807313561 -1.859968662
C 1.480587840 -1.512980103 0.582056761