10

C -0.729858041 0.643555343 -0.488116920
C 0.069316842 -0.565005541 -0.320646644
N 0.101132087 1.653768659 1.383828521
H 1.463946104 -1.153841853 1.114024758
N -0.736224890 1.656610608 0.290257514
H -0.512298644 -1.543477654 -1.826014638
F -1.495892167 0.669633806 -1.567493200
N 0.864529967 0.663723946 1.611885548
N 0.860415459 -0.399228513 0.820503294
N 0.114933245 -1.625738740 -1.018228054