10

O -1.965802193 -1.018695354 0.273257703
C 0.118177153 0.011138782 -0.423378289
O 1.791908503 0.125203565 1.253093958
H -1.953300953 0.714892745 -0.769219100
C 0.845842123 -0.487364113 0.818326712
H 1.239922523 1.552675962 -0.162008852
O 0.493612170 1.322839975 -0.743384659
H 0.469290972 -1.413296819 1.278027177
H 0.371377945 -0.695228398 -1.233150482
C -1.411028624 -0.112166233 -0.291564256