10

C -2.235502481 -0.276051402 0.160688281
H -0.369639277 1.812745571 -0.809374452
H 2.072671652 1.023316860 -0.429831654
O 2.274413824 -1.451658487 0.582356691
C 1.313076615 -0.784679830 0.311574310
C -0.082306936 0.874541461 -0.390194893
N -3.392503738 -0.356759846 0.234269843
O -0.007672654 -1.171285391 0.519497991
N 1.251969814 0.473281622 -0.246420234
C -0.824506640 -0.143450588 0.067434072