10

C 0.690243185 0.542141080 -0.077595964
N -0.319477051 0.895953536 -0.823525190
O 1.869871974 1.178880215 0.035054371
C -0.833899796 -0.987850487 0.338665873
C -1.286320448 -0.072385438 -0.557853818
H 1.125324011 -1.040022254 1.243688822
H -1.276790142 -1.852696776 0.794570684
H -2.255669594 -0.042006772 -1.044121742
N 0.468360901 -0.580048025 0.633956373
H 1.818356991 1.958035111 -0.542839646