10

C -0.019217821 1.271379590 -0.595114648
N 0.014589814 -0.009004623 -0.005369839
H -1.239286065 -0.757950425 -1.495199323
H 0.517509878 2.019107580 -0.004651214
H 0.638592958 -1.228290200 1.558728337
C 0.731651664 -0.188384831 1.198552847
O -0.682533383 -2.201678038 -0.179375574
O -0.610676289 1.498020172 -1.619925499
C -0.699542880 -1.081314087 -0.609990656
O 1.348912358 0.678114831 1.752345324