10

H 0.786656737 1.102112174 0.749698699
H 1.474374294 -0.406535298 0.206530407
C 0.534884989 0.144722342 0.282312572
O -1.161581278 -0.102636315 1.969709873
C -0.413509995 -0.609008789 1.191147447
H -0.392571807 -1.698703766 1.092276931
H -0.355351001 -0.596500814 -1.569622636
H 0.604042292 0.861798704 -1.776404977
C -0.081739195 0.351405084 -1.109339118
H -0.995205164 0.953346789 -1.036309123