10

O 2.342786074 0.286312371 0.916473866
C 1.220330834 0.646350980 0.632727861
H -2.485295773 -1.277509570 -1.116286397
C 0.208967805 -0.211518213 -0.025838926
N -0.565494478 -2.037248611 -0.955096424
O 0.583705723 -1.434405804 -0.434350133
N 0.438683540 3.075651407 1.141747117
C 0.754752040 2.003203154 0.911349058
C -1.474607706 -1.112918377 -0.819308639
N -1.023828030 0.062082719 -0.251417607