10

C 0.287437856 -1.491156697 -0.438273966
H -1.380578399 -1.072394013 0.797718108
C -0.156253353 0.573088408 0.189286739
N 1.239393115 -0.748289108 -0.987162709
C 0.973307788 0.525582790 -0.604508340
C -0.809533179 1.646277666 0.835064590
N -0.589389265 -0.747507155 0.279512793
H 1.596521139 1.357916713 -0.905143380
N -1.349951982 2.519879580 1.368536472
H 0.189046919 -2.563398838 -0.535030365