10

C 0.896362066 -0.207089439 -0.960505486
C -1.508023500 0.086044312 -0.559054613
F 0.174505115 0.259800076 2.477584839
O -0.383804560 -0.115643606 -1.394302845
N -1.285537839 0.231857687 0.788111448
N 1.006173491 -0.070837758 0.421749532
C -0.083086349 0.150138095 1.200500965
O -2.570866823 0.112848431 -1.105156898
O 1.825609684 -0.369668663 -1.684634566
H 1.928668380 -0.077449076 0.815707505