10

C -0.320769548 -1.347909331 0.828849435
C -0.117800072 -0.085766740 0.225229546
N -0.202221379 2.141341448 0.186594069
C 0.349801213 1.710265517 -0.917733252
H -0.627365947 -3.386069775 1.785307407
H 0.675270855 2.436558008 -1.654279947
H 0.808866441 -0.346366197 -1.744840145
C -0.485947967 -2.429349661 1.336327672
C 0.424740106 0.295175374 -0.969507575
O -0.504573762 1.012121677 0.924052835