10

N 1.140561223 -1.537793279 -1.925718665
C 0.109082058 -0.203911871 0.092150755
N 1.906023026 1.205833077 1.376963615
O -0.917440355 1.921294928 -0.490476638
H -0.776955843 -0.713833511 1.740345478
C -0.984237015 0.722762942 -0.521352172
O -0.512026906 -1.155513048 0.919447124
C 0.711706638 -0.959150910 -1.026493907
H -1.818878412 0.133507997 -0.959002852
C 1.142165422 0.586803615 0.794137120