10

H -2.097143173 -0.397383988 -1.180260301
O 0.609162390 -0.410648435 1.717657089
C -0.115467973 0.078814678 -0.535601497
N 3.221182823 1.169410586 0.201423764
C 0.872763395 0.064456522 0.640931964
O 0.296286345 0.454983741 -1.613570094
C -1.508470893 -0.417935461 -0.256502330
H -2.002200842 0.205546394 0.502941787
H -1.464064837 -1.430198193 0.157152742
C 2.187952757 0.682954192 0.365826666