10

H 0.296187222 -0.875736892 1.636108518
C -0.065381192 -0.904023468 -0.269997299
C -0.329479486 1.427415848 0.496329069
H 0.289619774 -1.513049483 -1.110704780
C 0.150171340 0.589866459 -0.594839692
N -0.725960851 2.043280363 1.399140716
H -0.380269140 0.853096187 -1.520664692
O 0.680263102 -1.302826524 0.868045688
H -1.135939956 -1.091709971 -0.143443719
H 1.220789075 0.773687005 -0.759973466