10

H -0.460081041 -0.948437989 1.669376850
N 0.124173760 0.939456463 -0.816687882
C 0.385928690 -1.243263602 -0.287085921
H 0.995308220 -0.425534278 -2.222827435
C 0.565246403 -0.301616848 -1.244279265
C -0.311539590 0.727568209 0.397987396
N -0.185700700 -0.558143020 0.776737213
O -0.850479960 1.640972614 1.223748088
H -0.845925808 2.469840050 0.742746115
H 0.583070099 -2.300841331 -0.239715487