10

H -2.007730961 0.266595930 -0.623963356
O 1.095917702 1.551840186 1.963308334
C 0.025215011 0.267783552 0.259563476
O 1.118691802 -0.509471297 -0.046873193
H -0.871768057 1.755329609 1.514565349
C 0.105948836 1.263497829 1.336544991
N -0.555015445 -1.136813402 -1.388581514
H 1.393948913 -2.027366877 -1.429643273
C -0.993340254 -0.115847521 -0.555348516
C 0.688132465 -1.315547943 -1.029572129