10

C 1.207759142 0.179649368 -0.223084182
O 2.363407612 0.056588672 0.055665225
H -2.414724827 0.479597569 -1.309969783
O 0.830316782 0.790562391 -1.391500473
N -1.170198917 -0.207038879 0.248489395
C 0.070399001 -0.300156415 0.612832487
C -1.388452053 0.405244231 -0.981973410
N -0.532869697 0.912384450 -1.787178636
N 0.649900794 -1.396764636 2.900263786
C 0.384462059 -0.920066833 1.876455545