10

C -0.352220863 -1.545851469 -0.364429384
O -1.693287253 -1.588033199 -0.842057884
C 1.045241594 2.214437485 0.548107147
H -2.233683348 -1.075603008 -0.221022770
H 2.141977787 2.278621197 0.453440487
H 0.261490464 -1.981097341 -1.155588746
C 0.145179540 -0.209530160 -0.050965514
C 0.523575306 0.914756417 0.227064386
H -0.228068203 -2.189243317 0.524429023
O 0.389794677 3.181543350 0.881023228