10

O 2.403971434 0.853328526 -1.769738913
C -2.438456774 -0.857861996 1.010227323
C -0.032868020 -0.006988774 0.427491903
N 0.402647376 0.079373635 -0.868009746
H -3.417119741 -1.197653055 1.244139314
C -1.328028679 -0.467671394 0.768780112
N 0.880480170 0.394834042 1.273423553
O 1.960706234 0.784673333 0.471836805
H -0.109606035 -0.183004260 -1.697754145
C 1.678274512 0.600969970 -0.860396266