10

C 0.152821496 0.793022633 -0.973227203
O 0.031324595 -1.176445246 0.837030411
C 0.697281480 -1.431250691 -0.313023061
H 0.286989063 1.479501963 -1.799525619
O 0.749494612 -0.391147017 -1.223472834
H -0.961245656 2.020765305 0.362042218
O 1.215107918 -2.477736473 -0.552923083
C -0.493329257 1.064203382 0.172337055
O -1.097737312 0.085593313 2.288386106
C -0.580706894 0.033492848 1.202376008