10

C -0.682890296 -0.215580910 0.041846178
C -1.071496725 -0.529705644 1.497184157
N 1.066602468 0.468625784 -1.455933571
H -0.226164579 -0.507033765 2.212177038
O 1.490191698 0.410835743 0.805340648
O -1.452261806 -0.336419523 -0.879134238
H 0.350764871 0.365805715 -2.158545017
O -2.205353022 -0.771930277 1.802449346
C 0.766427398 0.266606003 -0.159589946
H 1.964180112 0.848796964 -1.705794811