10

C -2.574004650 0.093502015 -0.708145797
C 0.893623233 -0.080260560 0.248057649
C 0.672476888 -1.463808060 0.482040197
N 3.330075979 0.790194869 0.407257974
C -1.447469950 0.403992295 -0.394942135
C 2.243546724 0.401351869 0.344614625
N 0.495515615 -2.591417074 0.670988083
H 0.094077572 1.846016169 -0.016383579
C -0.142072454 0.788362622 -0.039599385
H -3.565768957 -0.187934175 -0.993887544