10

C 1.139472842 0.294618577 -0.953658760
O -1.388811588 -0.574680507 -0.501036644
N 1.152637243 0.557795346 0.481446773
C -1.608206391 -0.486910164 0.667116165
H 0.485571206 0.991808116 -1.461160541
H -2.578573942 -0.640697896 1.128689528
H 2.151689053 0.478355438 -1.303137422
O -0.749051273 -0.199252993 1.692257762
H 0.827605069 -0.694823861 -1.200669050
N 0.567667603 0.273788065 1.450152159