10

N 0.220949113 0.133674577 1.114894390
H 0.757281840 2.085856438 0.403952241
C -0.385286272 -0.788739741 -0.817140877
C 0.015129331 0.559008360 -1.056041598
H -0.729944646 -1.506503701 -1.545461059
H -0.449468225 -1.901810527 1.126096249
H 0.036924176 1.073595166 -2.003621578
H 0.402820319 0.259458363 2.091461658
C 0.387624413 1.106539965 0.154470697
C -0.256030083 -1.021079063 0.531390011