10

O -0.296338826 0.370228976 2.124080420
N -1.056332588 1.230527639 0.160221860
C 0.546849728 -0.586397052 0.094742857
N 1.370335460 -1.359888554 0.692298830
H -1.690078616 1.846424580 0.632800639
N 0.272134602 -0.541288376 -2.476515532
H -1.092094898 1.167840004 -0.840702534
C -0.313391566 0.381261468 0.920566559
H 1.872879386 -1.942361474 0.021923853
C 0.386037320 -0.566347241 -1.329417229