10

H -0.567865193 -0.894310951 1.843514204
H -2.093436003 -1.347020268 -0.144849613
C -1.211888671 -0.718015373 -0.223263994
N -0.933760762 -0.179839969 -1.434307575
C 1.019523621 0.829804599 -0.593544424
C -0.392460823 -0.493218184 0.851076186
O 2.010471344 1.512132645 -0.744035602
N 0.701350331 0.272315383 0.665841937
N 0.128343105 0.535063326 -1.631421924
H 1.339723110 0.483088791 1.410991073