10

C -1.157963991 0.245572180 -0.450186938
N 0.097229652 0.165597007 0.099803865
H 1.867404342 -0.772282541 -0.535239160
O -1.766651630 -0.579847276 -1.058213711
N 0.401199341 1.326834321 0.723902404
C 0.971806407 -0.991388798 0.069624782
H 1.276921272 -1.262451410 1.073646069
O -1.564381599 1.516984582 -0.149269804
H 0.402798474 -1.795218229 -0.394247502
N -0.528362036 2.146200418 0.620180190