10

O -0.014912266 -3.199322701 -0.928088665
N 0.086426698 0.808689952 -0.511053264
C 0.147371605 1.937642336 0.134648383
C -0.021169463 -2.008094788 -0.824042618
O -0.034035895 1.825294971 1.432110429
N -0.246457666 0.457596719 1.710699677
H 0.119867161 -1.278081179 -1.638124347
O -0.225595459 -1.407992244 0.385376781
H 0.315946817 2.924097776 -0.280296445
C -0.127441585 -0.059831019 0.518770039