10

N -3.282460690 0.601892531 0.625079155
C -0.982941687 0.975771546 -0.590401590
C 0.136119485 0.103599228 -0.165429786
C 1.928121448 -0.861191869 0.186195046
N 1.092918873 -1.538329005 0.920383632
N 1.390002251 0.182117626 -0.511944056
C -2.251261711 0.733090758 0.113599464
H 2.976825237 -1.119841933 0.161099434
O -0.126371756 -0.897180080 0.709320664
O -0.880951405 1.820070982 -1.447901964