10

N -1.243792176 -0.342087388 0.224087626
O -1.816442370 1.905958533 0.045541849
H 2.670895338 0.559079885 -0.445358485
N 0.398793489 1.178966761 -0.192518249
C -0.072315574 -1.078843355 0.130246446
O 0.084400535 -2.270431995 0.245404840
O 2.212015152 -0.264993906 -0.307349741
C 0.913800716 0.014702989 -0.140413851
C -0.991551936 1.023108721 0.029672751
H -2.155803204 -0.725460112 0.410686821