10

H -1.854261041 2.063138723 -0.907337129
N -0.512997568 -3.027660370 0.713867843
O -1.526891232 0.113220714 -0.313693374
C 0.641758442 0.348081291 0.020790830
C 2.002369165 0.120685123 0.355296075
C -0.487226963 -1.905530095 0.428518236
N 3.100469112 -0.085931227 0.642019033
N 0.153566584 1.560852051 -0.430723041
C -0.403091133 -0.545888960 0.080825165
C -1.113695383 1.359032273 -0.589563489