10

N -0.365289688 -0.682744145 -0.117077693
N 1.895381927 -1.378238440 -0.358252168
H -0.830091417 -1.559443116 -0.273150116
N -0.090311535 1.472002625 0.329581708
O -2.263567924 0.644704223 0.234221518
H 2.823931694 -0.966963649 -0.331625223
C -0.938594937 0.522413433 0.154018849
O 1.196308494 0.844137549 0.123034596
C 1.017858982 -0.484411716 -0.138390556
H -2.445625782 1.588543177 0.377639145