10

H -1.522711396 -1.329417825 0.204461262
N 0.686150908 0.969781756 -0.482471853
N -1.315138102 0.201262161 -1.251747727
H 0.411550939 -1.425348520 1.857027531
C 0.941878378 -0.581424475 1.391602755
N 0.231580049 -0.082342967 0.276140630
C -0.248858765 1.082608938 -1.380485296
O 1.986142278 -0.147672951 1.775669694
H -0.200745165 1.824099660 -2.166162968
C -0.969849169 -0.511545658 -0.224034026