10

C 0.792944849 0.976807952 0.083572328
O -1.190610766 -0.198030084 -0.920956492
H 0.799904346 -0.935505807 -1.034108281
H 1.699642539 0.753336251 0.663867950
C -0.967633486 -0.943341494 0.273418218
H 0.100062504 1.523000598 0.722085953
C 0.155839935 -0.300098002 -0.422522277
H -1.101497173 -2.013097048 0.206167459
H -1.363556743 -0.484057724 1.188014984
H 1.074903846 1.620985508 -0.759539783