10

O 0.754267812 1.977410793 -1.760828972
O -0.188939318 -0.030159436 1.551623225
N 0.444666505 1.962726712 0.509903967
C -0.212271661 -0.670812368 0.377937734
N 0.142123222 1.415942550 1.556621313
C 0.460792333 1.313255072 -0.810082853
N -0.878636003 -3.171487093 0.604460716
C -0.584050596 -2.054758072 0.511424422
C 0.074845619 -0.096924245 -0.801135838
H -0.012797880 -0.645193756 -1.739923835