10

H -2.028460741 1.392716646 0.269936562
C 0.780491769 -0.816111684 -0.827319086
H 1.558021188 -1.461840034 -1.215829492
C 0.830625355 -0.336700886 0.488337904
N -1.209793448 0.278314590 -1.243584633
H -0.189763486 0.883736789 1.953205228
C -0.181791574 0.485240936 0.943845510
N -0.217637762 -0.500823140 -1.656323314
C -1.186001658 0.753913105 0.007236656
F 1.844310164 -0.678446233 1.280494809