10

H -0.910880923 1.358903885 -1.406828642
H -2.112493753 -0.316507697 0.100670651
C 1.016876459 0.745883584 -0.636275709
N 1.724330902 -0.039504930 0.178990901
N 1.087678790 -0.912624478 0.963479936
H 1.613755226 1.433457971 -1.230676055
C -0.372871041 0.708575666 -0.717453539
F -0.781805933 -1.821063876 1.745311737
C -0.226077691 -0.961931944 0.917404234
C -1.038512230 -0.195187896 0.085376747