10

H 0.297673315 1.250929832 -1.059651494
C 1.416165471 -0.545921326 -0.778981090
H -0.495770514 1.405996799 1.298435569
H -1.070343494 -1.359493494 -0.061192635
C -1.014108539 -0.275044799 -0.080574542
C 0.330530494 0.332710534 -0.477794290
C -0.183029205 0.416712195 0.956092060
H -1.908170581 0.227506250 -0.460721165
H 0.327905297 -0.194959179 1.697644353
N 2.299147606 -1.258436799 -1.033256888