10

C 0.707639813 -0.419553816 0.264885753
F 2.014613152 -0.122063830 0.082331032
N 0.286310017 0.691038251 2.509335756
C -1.503063560 0.475353003 -0.526980937
N -2.587193727 0.784980118 -0.330292732
C -0.149381801 0.070359059 -0.813276529
C 0.425790280 0.199446082 1.516738772
F 0.410341501 1.047509789 -1.507900953
F -0.298572600 -0.979580760 -1.660241365
F 0.693516672 -1.747487903 0.465401322