10

N -0.518712342 -1.196633577 -0.204016075
C 0.617017925 -0.620010495 0.184685990
C -1.408070564 0.885457039 -0.433433563
C 0.741002083 0.785847962 0.251304358
H 1.669532299 1.254043341 0.538127720
H -2.277879238 1.484515667 -0.681745470
N -1.551066041 -0.433150560 -0.533288181
H 1.366331458 -2.314820528 0.414690554
N -0.299072295 1.548136353 -0.048417304
O 1.660916805 -1.393385410 0.512091935