10

N -2.452695847 -1.038285494 -0.539397240
C -0.058855396 -0.219900742 -0.082690604
C 0.098520510 1.265869260 0.052085623
O 0.884555697 1.806204081 0.755654335
H 1.596562624 -0.267227560 -1.132981420
O 0.686365604 -0.521023035 -1.221997261
N 0.714278579 -1.321918845 2.078444004
C 0.404649973 -0.869843721 1.086546898
H -0.479589224 1.843295455 -0.660226524
C -1.393792391 -0.677169919 -0.335437596