10

N 1.631462455 -0.488217384 0.103992321
F 2.288863420 1.565210700 -0.469134688
N 0.090064600 1.282759547 -0.372277439
C 0.624154925 -1.240937233 0.331311554
H 0.746198595 -2.286247969 0.607513547
H -2.811340094 0.021905636 0.067924082
N -2.185376406 0.796842098 -0.178484038
C -0.992749929 0.456871361 -0.111433536
C 1.260033131 0.784894645 -0.245656475
O -0.651310623 -0.893081248 0.266244620