10

C 0.855433762 -1.283367157 0.320015103
N 1.135692835 -2.318372488 0.749477983
C -1.099848866 -0.182789713 -0.590326905
N 0.654407501 1.121919870 0.654278994
C 0.392380208 0.009110196 -0.224945307
H -1.305471301 -1.095449567 -1.206879258
O -1.960232854 0.579896927 -0.246931776
H 0.321956664 1.988428950 0.223680630
H 0.909590483 0.156275526 -1.181882858
H 0.096091442 1.024347186 1.503513217