10

N 1.410175800 0.133897737 1.593037009
O -1.301026940 0.100094110 -1.376459122
H 0.555444777 -2.080113888 0.143263698
O -0.001260499 1.234523892 0.206074119
C -0.950165570 1.280545950 -0.772454917
C 0.134685487 -1.113740683 -0.104545616
N -0.730501890 -1.118675113 -1.039521694
O -1.461214066 2.292022467 -1.112560511
H 1.760422707 -0.795043886 1.827881813
C 0.583440423 0.066488609 0.635285199