10

C 0.095250428 0.142947093 -0.602296114
H 0.818146825 0.587012351 -2.301370144
O -0.074283399 -0.100383565 1.563186169
O 1.219507694 -0.432900906 -0.215533525
O 0.014485503 0.663472354 -1.787155151
O -2.060065031 0.167945772 0.443942428
H -2.332413673 0.427837729 -0.420233160
O 1.955891132 -1.018986702 1.811379194
C -0.742206812 0.135541007 0.393585622
C 1.105687261 -0.572485149 1.114494920