10

H -1.565890193 0.722124577 -0.266537130
O -0.141388297 -1.797814608 0.236686289
F 0.918846011 -1.009103417 -2.323389769
N -0.433439612 0.115431406 2.830507755
O 1.473969579 0.728867769 -1.116453648
C -0.615120888 0.497001827 0.285813034
F 0.062410876 1.567318916 0.133963332
C 0.838865578 -0.282418162 -1.297999144
C -0.577691913 0.204486161 1.765211701
C 0.039438948 -0.745894492 -0.247803107