10

F -1.619910836 -0.418491304 -1.176648617
O -1.160447001 -1.152364373 1.634666681
O 1.666694641 0.320813745 1.591462731
C 0.703340471 0.023514062 -0.612318814
F 1.107883573 -1.119071603 -1.145022869
F 1.245701909 0.948540211 -1.366371036
F -1.335054636 1.502106786 -0.349613041
C 0.821231961 0.032894008 0.829270303
C -0.869560897 0.252284527 -0.342990220
C -0.559879422 -0.390225887 0.937565029