10

N 0.897876501 -0.001383598 -0.824231803
C 1.692765594 0.298505127 0.247874543
C -0.362631410 -0.138898611 -0.568879008
N 1.342471361 0.449619740 1.469580293
C -1.282431483 -0.484713018 -1.596340537
O 0.006245228 0.315503806 1.737662435
N -2.036139727 -0.791490436 -2.416817188
H 2.753090143 0.420861155 0.048501465
O -2.080056667 -0.094579570 1.105617046
C -0.931189895 0.026575390 0.797032833