10

C 0.012177764 0.320795953 0.370771289
H 0.867755234 0.444386423 2.083433390
O -1.933880687 -1.217930079 0.954040051
H 1.606561065 -0.716672301 -1.105543971
O 0.426275492 1.038193822 1.457152128
C -0.996447504 -0.808269203 0.341127187
C -0.002246894 0.874438703 -0.943244517
O -0.392170906 -1.406493187 -0.710613966
C 0.615981996 -0.382091314 -0.835397959
O -0.204005525 1.853641510 -1.611723542