10

C -0.256702036 0.306765079 -0.326977670
C 0.090024307 0.253624409 2.025156260
H -0.237776175 0.066541977 -2.452306032
O 0.411161155 -0.301641434 3.022195816
C 0.106773943 -0.466343164 -1.568392396
H 1.190901160 -0.628677011 -1.617876887
O -0.851831377 1.335430741 -0.277959853
O 0.186918557 -0.371343493 0.794751525
H -0.344296575 -1.461854458 -1.534597278
H -0.295172870 1.267497540 1.936006784