10

C 0.978730619 0.316356987 -0.688776433
C -1.016249299 -0.317717612 0.203373536
O -0.122595407 -0.417663753 -0.754321337
C -0.482892901 -0.278337777 1.497923613
N 2.142368078 -0.014540398 -1.011345029
N -2.236837864 -0.266810089 0.045011390
H 2.829438925 0.671221197 -0.860053718
N -0.100749403 -0.328667492 2.568235159
F 0.649329424 1.422012448 -0.313365847
H -2.640541792 -0.785853446 -0.686680853