10

C -0.134823620 -1.051094651 0.740840912
F -1.373605609 1.565822482 -1.087943792
C 0.167339727 0.043514181 -0.002854598
H 2.337107420 -0.045390382 -0.020509021
C 1.480344772 0.540616035 -0.401973337
O -1.459857345 -1.197272062 0.827534258
H 0.461596161 -1.809041739 1.237470388
O 1.680698752 1.515452027 -1.102743030
N -2.066392422 -0.111682571 0.143154562
C -1.092408061 0.549076736 -0.332976401