10

N 2.036274672 -0.827775538 2.740701914
C 0.995000124 -0.376516819 0.369082361
C -1.589286089 0.292959720 -2.051218271
C -1.007553816 0.253884673 -1.027492523
C -0.293393672 0.326775432 0.240629032
C 1.549992681 -0.603601754 1.718277335
O 1.576833844 -0.775557935 -0.567004681
F -1.092888117 -0.154409304 1.203482509
H -2.128720999 0.292229086 -2.962348223
F -0.046258375 1.572012544 0.335891366