10

N 1.715980411 2.114240408 -0.239886791
C 0.346286654 -0.037809808 0.278472602
C -1.071282983 0.067455523 -0.035946153
F -1.759657502 -1.024821281 0.308291972
F 0.547210455 -0.171068281 1.630633116
C 1.105615139 1.162604570 -0.005757961
F -1.719639897 1.035906196 0.638843358
C 0.878469467 -1.205786705 -0.358440518
F -1.347382545 0.219390035 -1.357985377
N 1.304400802 -2.160110950 -0.858224273