10

O 0.806858182 -0.769237638 1.086842179
C 1.793724060 0.132268146 0.624453723
N 1.451034784 1.026496887 -0.398622066
N 0.274685383 1.063435674 -0.895008922
N -3.018622160 0.231773153 -1.568756342
O 2.860115051 0.097932287 1.142867446
C -0.687169135 0.165963024 -0.450045824
C -1.970843673 0.214728698 -1.072879791
H -1.097583890 -1.440316677 0.980693638
C -0.412198335 -0.723043382 0.550455809