10

C 0.055859581 0.649838150 -1.146065116
C -0.391168088 0.704871416 1.184479237
O -1.390980244 0.589612246 1.845670938
N -0.062642910 0.001662405 0.023904171
F 1.494235396 -1.576060414 -0.200415283
O -0.520141840 -2.292274475 0.032487217
O 0.102739647 1.845540285 -1.250441313
H 0.119690612 0.024649844 -2.025533199
C 0.191731676 -1.318096399 0.003078661
H 0.400676399 1.370257020 1.532834649