10

F -0.070353143 2.093982697 -0.322700441
H 0.615583837 -1.276601315 2.338357210
C 0.349061280 -1.168829203 1.270111561
O -0.546131909 -0.943885326 -1.909673572
F 0.615657389 1.056579113 1.704647541
O 0.168798655 -2.156074047 0.588464856
C -0.114715993 0.823074460 -0.346335590
C -0.497255564 0.233728379 -1.637041688
F -0.774670184 1.119361401 -2.521940708
C 0.254025817 0.218663827 0.836110711