10

H -1.025732398 -1.234766126 -0.188467667
H -0.628187060 -0.845661283 1.498165965
C -0.571838617 1.460077763 -0.024441484
N -1.369724154 2.320766926 -0.056477878
C -0.216550142 -0.927468538 0.486824304
O 1.108891368 0.256291300 -1.203636050
H 0.543017089 -1.728871465 0.500471056
C 0.401667923 0.357338786 0.026536817
H 1.186900377 0.677325547 0.736155272
H 0.571555793 -0.335032880 -1.775130391