10

H -2.130809307 -0.440668344 0.632113338
C 2.239924908 0.207933068 -0.503425002
H -0.801971793 -1.573228478 0.307295024
H 3.299787283 0.080641448 -0.557506919
H -0.661384284 1.500582814 -0.015982032
C -0.413811415 0.473383456 -0.340724200
C 1.037174344 0.333584368 -0.447143823
H -0.674047232 -0.407870561 1.642470837
H -0.856959820 0.375029624 -1.334606886
C -1.037902594 -0.549387395 0.617509723