10

H 0.909872413 -0.245992303 1.415823698
H 2.024543762 0.578926086 -0.727763534
O 0.934185207 -0.791995108 -1.758856773
C 1.171734214 -0.126188502 -0.766336679
C 0.360690176 -0.175138757 0.483915210
H -1.182449698 1.142020941 -0.437062800
H -1.048398972 -1.185010314 -0.523396313
C -0.937612474 0.599236906 0.471430480
H -1.288926244 1.066082597 1.400259733
N -0.943638444 -0.861941636 0.441987097