10

F -0.643679261 -0.923500717 1.310318351
C 1.334284186 0.371606529 -0.309755981
F 1.357161522 -0.981604099 -0.335462272
F -1.047553062 -0.917624056 -0.874330819
F 2.673204899 0.736431241 -0.562866926
F 1.077253222 0.873313487 0.907264769
F -2.685796976 -0.668864429 0.577283561
C -1.335582614 -0.379097849 0.316734731
F 0.610051572 0.931138515 -1.299227595
F -1.339343786 0.958201230 0.270042241