10

C -0.932167947 -1.102024674 0.095283329
F -1.366981626 -0.191031337 0.984651327
F -0.268348515 1.591671467 -0.403005421
F 0.965814233 0.683843672 1.193079710
C 0.925730586 1.108538508 -0.091971517
F 0.268949777 -1.638844609 0.399902850
F -0.965051293 -0.705868304 -1.214719892
F 1.801058650 2.216269970 -0.123805895
F -1.863397360 -2.173021793 0.152012825
F 1.434393406 0.210467190 -0.991427362