10

F -2.706185102 -0.774101198 -0.157048956
F 1.339464545 -0.691642344 0.821351349
F -0.691077709 -1.522914171 -0.515305161
F -1.157328963 -0.163787499 1.152288318
C -1.351526141 -0.443781137 -0.113542095
C 1.341253042 0.436264157 0.115521081
F -1.257872820 0.642170250 -0.903757453
F 2.677300215 0.877528667 0.188158780
F 1.169086814 0.173145220 -1.202125669
F 0.636886239 1.467118025 0.614459932