10

F 1.506751180 -0.633057058 -0.335955739
F -0.768989086 2.340651751 1.453570962
F 0.397135526 1.688915968 -0.251536310
F 0.281831056 0.417958081 1.618208885
C 0.366528928 -1.197168469 -0.726884365
F -0.288476467 -0.444114119 -1.650637984
F 0.770450592 -2.347133875 -1.440039635
F -1.510733366 0.624684989 0.303545654
C -0.389448851 1.177377343 0.734071553
F -0.365049720 -1.628114820 0.295657068