10

C 1.080856204 -0.189151168 0.906970143
F -1.909558535 0.531912267 -1.966428638
C -1.087845445 0.182144165 -0.902730644
F 1.932335019 -0.480817288 1.943502069
F -1.314390898 1.076699376 0.072456345
F 0.119522937 0.312144935 -1.510902882
F 1.671054363 -0.789524317 -0.131928101
F -1.485305786 -1.042294621 -0.549603224
F -0.058397502 -0.728204787 1.352071285
F 1.051729083 1.127091289 0.786593735