10

F -2.121954203 -0.651811182 -1.780978680
C 1.059145451 0.322381705 0.927379668
F -0.031224526 0.030856052 -1.819415450
F 2.053850174 0.697174847 1.884666443
F 1.554598212 -0.698913336 0.198673800
F -0.003361297 -0.045664065 1.729249120
F 0.884390712 1.435930252 0.174163550
C -1.034503937 -0.335927308 -0.945834577
F -0.873154223 -1.449833155 -0.178727880
F -1.487786889 0.695806146 -0.189175904