10

F -0.304943949 0.286035508 -1.642234802
F 1.676582694 1.323043466 1.866564989
F 0.040367004 -1.629681826 -0.529783845
F 0.080076292 1.632953763 0.453561097
F -1.692617297 -0.140447170 0.013667107
F 0.212590456 -0.262909681 1.612304211
C 0.863807976 0.660738766 0.911935687
C -0.864656508 -0.689034998 -0.897439539
F 1.710302234 0.178869516 -0.010950041
F -1.721509099 -1.359567165 -1.777624965