10

F -0.707460582 0.765957296 -1.329169512
F 0.684663415 -0.807904720 1.330516934
F 1.607825041 0.531527281 -0.282170802
C -1.248343825 0.732375801 -0.096939147
F -1.615350723 -0.514299750 0.281714588
F 0.509594679 -1.359316230 -0.845709622
F -2.434954882 1.482715964 -0.187316403
C 1.233368874 -0.713429511 0.117591694
F -0.490431219 1.311533451 0.819780707
F 2.461088896 -1.429159641 0.191701397