10

C 1.464193821 0.140584037 -0.000488725
F -1.161999226 0.825982332 -0.941548288
F 2.862912893 0.247039422 0.048502602
F 1.142158270 -0.225795805 -1.257523060
F 1.161763191 -0.836249471 0.917020738
F -1.167111158 0.217774451 1.244111300
F -2.836747646 -0.219715953 -0.034178641
C -1.444258332 -0.134306297 -0.016027646
F -0.983802557 -1.360845208 -0.295005739
F 0.962890208 1.345532537 0.335137397