10

F -1.539246202 0.372024655 -0.561404824
C -0.624938250 -0.288303852 -1.272283792
F -0.440646559 -0.502226889 1.592571378
F 1.223323107 0.566622734 2.480167866
F 1.538512588 -0.315789521 0.492584080
F -0.266118020 -1.457773924 -0.729622602
F 0.306861341 1.488908291 0.761609256
F -1.236523747 -0.596041381 -2.479604959
C 0.621007621 0.274499714 1.252931118
F 0.417768061 0.458080024 -1.536947370