10

F -0.103555560 -1.658993483 0.431399345
F -0.781091928 -0.082743615 -1.421450019
F -1.924863219 1.761051059 -1.155074000
F 1.560376048 -0.457448721 -0.586227536
F 0.085647635 1.703984857 -0.380634993
F 1.942844510 -1.761958003 1.050963163
F -1.581528425 0.456779003 0.588281751
F 0.809941053 0.031943031 1.476997137
C 0.996458411 -0.889722824 0.539354444
C -1.004228234 0.897108614 -0.543609083