10

F -0.849507987 -1.331888318 -2.348608494
F 0.859504759 1.348268151 2.376368284
F -0.416276246 -1.604117155 -0.238813311
F 0.437399119 1.587634087 0.252574235
F -1.385014653 0.267489612 -1.009311557
F 1.352429748 -0.306746811 0.971450925
C 0.447766870 0.654097080 1.219017863
C -0.442322999 -0.643475413 -1.193765640
F 0.781065881 -0.162662715 -1.518368244
F -0.785044312 0.191401735 1.489455581