10

F -0.360740781 1.429839015 -0.852621615
F -2.493433714 0.903231144 -1.051952243
F -0.979548275 -0.700175941 -1.207024217
F 2.455069780 -0.855831325 1.155583262
F -1.444694996 0.254587054 0.733908772
F 1.515104651 -0.246933416 -0.704542220
F 0.938455343 0.671007276 1.173927665
F 0.378710747 -1.456759691 0.770178974
C -1.253664136 0.463614166 -0.573386431
C 1.244741440 -0.462578654 0.555927992