10

F 2.216419697 1.623894811 -0.744092345
F -2.246363401 -1.614026308 0.773551702
C -1.147027135 -0.798792362 0.401953608
F 1.411660314 -0.416100830 -0.919697225
F 1.157606602 0.822192430 0.927387595
F -1.060755372 -0.895810664 -0.922082782
C 1.120951653 0.779259682 -0.411227524
F 0.074723862 1.407206893 -0.954178035
F -0.099373966 -1.359990001 1.019743562
F -1.427842498 0.452166051 0.828641713