10

F -0.573765576 -0.560862005 1.510781407
F 1.538052320 -0.757495642 0.058872886
F -1.531139374 0.706439078 -0.064949967
C -0.738636374 0.676616192 1.027704120
F -0.431062758 -1.344284177 -0.902348638
F -1.441623449 1.360189915 2.030236006
F 0.390612096 1.381003141 0.843739152
C 0.737482488 -0.684862018 -0.998149037
F 1.436321378 -1.345398903 -2.039711475
F 0.613759577 0.568654597 -1.466174483