10

F 1.657597542 -0.183763236 0.191341653
F 0.027954141 -1.726438165 -0.101279132
F -1.690288544 0.219110698 -0.197057560
C -0.761808872 1.006384969 -0.762504816
F -0.035478443 1.724632382 0.119724222
F -0.014766818 -0.356305987 1.645605087
F -1.484015465 1.896071911 -1.576136708
C 0.752336800 -1.009391069 0.785893977
F 1.514136553 -1.916644216 1.557544947
F 0.034333300 0.346342474 -1.663131714