10

C 1.153190136 -0.005057664 -0.864181340
F -1.296546578 -1.042507648 0.073813111
F -2.306538820 0.026529439 1.686838627
F 0.097970128 0.062567391 -1.703302622
F 1.286799669 1.004315376 -0.020294007
F -1.210173965 1.213079691 0.196841523
F -0.080999650 -0.110202067 1.718563437
F 2.320749760 0.058452900 -1.669137716
F 1.185553670 -1.229251742 -0.275272578
C -1.150003910 0.022074295 0.856131315