10

C 0.599788904 -0.288697302 1.261079788
F 0.450347751 -1.494211793 0.731176853
F 1.197889686 -0.539372563 2.512102365
C -0.592945576 0.266782939 -1.267019391
F 1.446425796 0.497099727 0.622849941
F -1.228842020 0.573885798 -2.490093470
F 0.566204429 -0.310189217 -1.574787140
F -0.486509174 1.493955851 -0.678270996
F -1.416179419 -0.561052680 -0.651782095
F -0.536180258 0.361799121 1.534744024