10

F -0.322344333 -0.554023862 -1.576472044
F -1.518149972 0.783656180 0.195765048
F 0.313172579 0.588433325 1.587191224
F -1.701391935 0.195687532 2.264116526
C 0.871973753 -0.079465315 -1.164330006
F 0.818491459 1.255986810 -0.895187676
F 1.704792500 -0.215244353 -2.287967443
C -0.850176811 0.067345515 1.156050205
F -0.770914972 -1.243320346 0.889594316
F 1.454547763 -0.799055338 -0.168759614