10

F -1.344774365 -1.033954144 -0.021570889
F 1.356678367 1.000040412 -0.014326749
C 0.049023595 1.408774257 -0.092534043
F -0.668983996 1.188621879 1.058166862
C -0.043729100 -1.412558198 0.091709390
F -0.171336487 -2.806874037 0.203536063
F 0.595497727 -1.063145757 1.220365644
F -0.575667322 1.065963149 -1.242209315
F 0.125168502 2.833604336 -0.172820911
F 0.678123057 -1.180471182 -1.030316114