10

F -2.750587702 -0.735066950 0.010563482
C -1.358310103 -0.396560699 -0.029809402
F 2.722540617 0.819410801 0.022795031
F -0.706757784 -1.567703485 -0.248453304
F 1.303596497 -0.551883399 0.962514699
F 0.654982626 1.531380177 0.295230865
F -1.162132025 0.080214299 1.211433768
C 1.387307286 0.408420056 0.027937664
F -1.269704103 0.491530150 -1.037263632
F 1.179064989 -0.079740867 -1.214949131