10

F -0.215247482 0.068534672 -1.622805476
F 1.528999805 0.698491573 0.075204879
F -0.962054431 -1.915464044 -1.794977188
F 1.025555611 1.893516898 1.748971343
F -0.507107258 1.640469909 0.253654748
C -0.506809413 -0.988097370 -0.869223595
F 0.546102107 -1.609550118 -0.292568088
F -1.534958601 -0.777819812 -0.022717901
F 0.130606011 -0.010659857 1.660351396
C 0.494913787 1.000578284 0.864109755