10

F 1.512982368 -0.706721544 0.264168680
C 1.075511336 -0.167456985 -0.911283195
F 0.055580273 -0.810059071 -1.507747889
C -1.090512276 0.179663062 0.903741181
F -1.509506702 0.705707371 -0.251207530
F -0.886133075 -1.149156809 0.821862698
F 0.874732375 1.153711677 -0.845004082
F -0.056727596 0.817510188 1.496837735
F 2.191941977 -0.344341874 -1.756080985
F -2.167869091 0.321143985 1.784713387