10

F 0.286649823 -1.739866614 0.083468385
C -0.106168196 -0.884411931 1.086518407
F 0.840966523 0.014853099 1.409863710
F -0.790742755 -0.043500133 -1.438977838
F -1.365506768 -0.405523717 0.969403863
F 1.363873005 0.372784436 -0.976902127
F -0.307434946 1.729496956 -0.081395291
F -0.213758573 -1.695649385 2.252385378
C 0.100238778 0.902376354 -1.093073130
F 0.191883236 1.749441266 -2.211290836