10

F -0.649346828 1.514237881 0.400322765
F 0.742693484 -1.516889215 -0.315494448
C -1.155459881 0.317994595 0.805538476
F -0.352693349 -0.337430418 1.640607476
C 1.139550686 -0.328054130 -0.789146066
F -1.599598408 -0.480434835 -0.178095236
F 1.646368980 0.473176658 0.148347378
F -2.326410055 0.646491408 1.547985554
F 2.252110481 -0.624696195 -1.657817245
F 0.302784830 0.335604548 -1.602248430