10

C -0.281764120 -1.343737006 -0.451457500
F 1.047575831 -1.281066656 -0.391591936
F -0.635000110 -2.624627113 -0.899027586
F 0.830544770 0.535336375 1.372617126
C 0.286803871 1.333050013 0.434410572
F 0.881720126 1.246819615 -0.769616485
F -1.063422084 1.270927310 0.461120576
F 0.564484417 2.657115221 0.833079576
F -0.794092000 -0.525860488 -1.362970829
F -0.836850882 -1.267957211 0.773436248