10

F -2.307507038 -1.578949213 0.545810103
F 0.449337900 1.436566591 0.679298580
F -0.539673328 -1.450476408 -0.751893580
F 0.491634101 0.736882687 -1.382320642
F 2.269174814 1.650184035 -0.555213213
F -1.661484361 0.405476868 -0.046933707
C -1.156005025 -0.809524417 0.245391533
F 1.711887240 -0.375941098 0.114482597
C 1.173547029 0.819168866 -0.254303604
F -0.430911154 -0.833388090 1.405682206