10

F 1.578818321 -0.737457573 -2.201013803
C -0.839661777 0.359666497 1.089335680
F -0.454703718 -0.541481853 -1.474650979
F 1.129070401 0.935170233 -0.886048675
F -1.584392071 0.761188507 2.242850065
F -1.128402233 -0.920518816 0.854491830
C 0.817179620 -0.373865128 -1.105173469
F -1.241258621 1.229489803 0.107340522
F 0.467222869 0.502217948 1.487029314
F 1.256127238 -1.214409232 -0.114160284