10

F 0.303414524 -0.018997870 -1.628312588
F 1.830274820 1.501134157 -1.514705300
F 0.137931198 1.725841403 -0.148510173
F 1.697373986 0.092456795 0.122469388
F -0.334987760 0.055513706 1.626356483
C -0.931221306 -0.783273101 0.740920067
F -1.832817554 -1.531529546 1.519432306
F -1.709639907 -0.129639074 -0.193868235
F -0.072271757 -1.679567814 0.206390589
C 0.911943913 0.768061399 -0.730172396