10

F -0.961411059 1.004832625 0.991634846
F 0.992022574 -1.036234140 -0.943886161
F -1.506421208 -0.595185697 -0.550564349
F 1.491567731 0.609607458 0.460619569
F 2.359543800 -1.393435836 0.755457163
C 1.176790714 -0.702467918 0.336709529
F -0.277816147 1.101744533 -1.232180715
C -1.172776341 0.716669023 -0.322481900
F 0.222760394 -1.153334737 1.182602286
F -2.324260712 1.447805047 -0.677910209