10

F 0.390107363 -0.414325684 -1.539855838
F -0.477065653 -2.377273798 -1.440254450
F -1.465588331 -0.811423719 -0.385814488
F 1.470629930 0.891892910 0.314295113
C 0.216198429 1.210974097 0.689702213
F 0.401889175 2.391804218 1.471234560
F -0.318095356 0.365546972 1.579842925
C -0.215708196 -1.208849788 -0.679212630
F 0.594484925 -1.616047025 0.295502096
F -0.596852124 1.567702293 -0.305439770