10

F -0.410346329 1.115024328 1.170357585
F -0.727228045 2.740199327 -0.222118273
F -0.858717084 -1.311144471 0.710273027
F 0.865417540 1.294052482 -0.686675489
F 1.364720225 -0.699737012 0.785461783
C -0.374789894 1.371650100 -0.154889330
F 0.318114370 -1.131075382 -1.146328807
C 0.375570834 -1.375198483 0.139328957
F 0.793273687 -2.720870972 0.239335299
F -1.346015334 0.717099845 -0.834744573