10

F -1.006052971 0.002525839 1.354834676
F -1.008614063 -2.171484709 1.514905095
C -0.472353995 -1.078193188 0.780103564
F 1.029446125 -0.014816950 -1.300785661
F -0.861424804 1.134048939 -0.846193910
F 0.844653189 -1.220853209 0.857122719
F -0.943872631 -1.276423335 -0.453771412
C 0.486396343 1.094095826 -0.789538562
F 0.954347253 1.365034103 0.435159147
F 0.977475643 2.166066408 -1.551835418