10

C 0.451834381 -0.854794741 1.032081723
F -0.065248787 1.665699124 0.000676085
F -0.874450266 1.726755142 -2.035060644
F 1.522488832 -0.129679680 0.684352577
F -0.531057894 -0.172431901 1.628021359
C -0.447723329 0.840126932 -1.015656829
F 0.025533389 -1.632098436 0.045129057
F 0.934123695 -1.767022014 1.985318542
F -1.582631111 0.133661181 -0.730598807
F 0.567131042 0.189784631 -1.594263196