10

F 0.647663534 -1.911175728 -2.017122746
F 1.259471893 -0.036241207 -1.173043251
F 0.308188587 -1.627890468 0.117830180
F -0.937144399 -0.496443629 -1.362300396
F -0.342121065 1.644525886 -0.110136487
C -0.288517058 0.970544040 1.054822803
F -1.260903716 0.016242597 1.135760546
F 0.933433115 0.501642942 1.323325872
C 0.284194946 -0.966819108 -1.042304039
F -0.604265749 1.905614734 2.073167562