10

C 1.431313992 -0.009161775 0.078068830
F 2.828068018 -0.143773347 0.183189869
F -2.826438665 0.065884300 -0.188328877
C -1.418736696 0.018272929 -0.074903943
F -1.166852951 0.327226579 1.185069084
F 1.105973601 1.223673344 0.506168425
F 0.985724449 -0.984584928 0.878128469
F 1.173398852 -0.210559890 -1.219387293
F -1.007406235 0.960177302 -0.924143672
F -1.105044365 -1.247154474 -0.423860550