10

F -0.298301518 -1.354792237 -1.134491205
F 1.786723256 0.239689037 2.250786543
F -1.761127114 -0.137920395 -2.221366644
C -0.887350023 -0.143839225 -1.164011598
F 0.007800396 -0.838507891 1.508010387
C 0.881913185 0.131464288 1.172700286
F -0.007872240 0.839537501 -1.475189209
F 0.278854012 1.333960414 1.043789148
F -1.697071671 0.080725081 -0.089451820
F 1.696431756 -0.150316551 0.109224059