10

F -1.340748787 0.836800396 0.665540278
F 0.951609731 1.414442897 -0.309069157
F 1.296221137 -0.789339483 -0.659016788
F 0.974502623 -0.091099240 1.412950873
F -2.797093868 -0.469666719 -0.353216529
F -0.914079547 -1.404559851 0.324385285
C 1.405823827 0.238076657 0.173756436
F -0.984001815 0.074938513 -1.422044277
F 2.815104485 0.420162171 0.329027086
C -1.407337546 -0.229755297 -0.162313297