10

F 0.240956575 1.383026719 0.938804865
C -0.808687985 1.175757408 0.155036166
F 0.568684220 -1.051618457 1.162912965
F -1.606659174 2.345088005 0.254328847
F -0.263738066 -1.407946110 -0.916818917
F 1.596860409 -2.329173088 -0.262233317
F -0.495484352 1.084844589 -1.156451106
F -1.608377934 0.159645632 0.530184567
F 1.575592637 -0.183306888 -0.563139141
C 0.800853312 -1.176317573 -0.142624795