10

F -0.452122420 2.774320364 0.248976126
F 0.286438316 -1.121780157 1.187207699
F 1.017418623 1.195146203 0.641273916
F -1.234218121 0.830831528 0.808050632
F 0.374209911 -2.774599314 -0.200013518
C -0.215610012 1.396635056 0.125031099
F 1.257193923 -0.848588824 -0.789610982
F -0.232895613 1.150933743 -1.213296533
C 0.212919071 -1.381228685 -0.124822922
F -1.013333559 -1.221669316 -0.682795465