10

F -1.464083314 -0.196879998 -0.866130352
F 0.483914465 0.491932452 2.761658192
F 0.452134788 0.887233436 -1.312646508
F -0.437733620 -0.870192051 1.349075556
F 0.431245744 -1.373605251 -0.992830753
C 0.241919786 0.273213506 1.404714108
F 1.434673190 0.119435817 0.827180684
C -0.249580041 -0.264701307 -1.388110995
F -0.438460141 1.378066182 0.992191434
F -0.454030961 -0.444502771 -2.775100946