10

F -0.564283133 -0.299489945 1.539050102
C -0.045257468 -0.830185831 -1.190566540
F -0.109251097 -1.536193609 -2.339041710
F 0.668083668 -1.505627632 -0.317423314
F -0.642262161 1.521223187 0.305197835
F 0.519271493 0.354558617 -1.535752773
F -1.309671164 -0.700641990 -0.798432469
F 1.300528765 0.604408383 0.827360153
C 0.057811543 0.815177143 1.181343436
F 0.125029773 1.576771617 2.328265667