10

H 1.830696702 1.524158835 -0.618666649
C -1.043176055 -0.862574697 0.366529554
C 1.279753566 -0.428217113 0.017580533
O 0.293050587 -1.276331425 0.365935743
C 1.023284316 0.838254035 -0.348350018
N -0.268041462 1.334907532 -0.388624489
H -2.254097223 0.869916618 -0.087965809
C -1.226445675 0.529179335 -0.062708482
O -1.899350762 -1.638662934 0.690417230
H 2.264326334 -0.890630245 0.065852419