10

N 1.580510020 2.035636902 -0.639836252
H 0.269077748 -1.987213492 -0.443474442
H -1.604311228 0.948732615 0.050849270
O 0.656318545 -1.171871185 -0.791377008
N -1.266354799 0.081635460 -0.350905091
N 0.344471455 -0.642165542 2.539639235
C 0.139134988 -0.104843289 -0.054216899
C 0.978731751 1.080983639 -0.365882099
H -1.370221019 0.138152763 -1.360804796
C 0.272642434 -0.379047871 1.416008115