10

O 0.762498975 -1.815092444 -1.197041631
H 1.212273240 -2.364521503 -0.547044933
O -1.440948009 2.156587839 -1.104073524
C -0.821207702 1.239373088 -0.668582737
C 0.305827022 -0.739319324 -0.568803430
O -0.555137515 1.302591324 0.788351953
N -0.329932839 0.152682960 -1.283115864
C 0.090959594 0.323809355 1.363138080
H 0.206034616 0.457088947 2.442416430
N 0.569632590 -0.713200331 0.774755239