10

H 2.089469433 -1.428189516 -1.533798456
C -0.444542915 -0.695997179 0.139739379
N -1.704504251 0.753161073 1.195652127
C -0.685312390 1.411913872 0.682096362
O 1.276294470 0.314002633 -0.755166411
O -1.566866875 -0.595501423 0.859828949
C 0.138589576 0.505375981 -0.015008683
H -0.629320025 2.468020678 0.871535003
C 1.264673710 -1.038024306 -0.969536483
N 0.261519253 -1.694761157 -0.475341976