10

C -1.027164936 -1.122269630 -2.104977608
N -0.857020140 0.511500537 -0.246675149
H 1.781620979 -0.500384331 1.184692144
N 0.985291839 -0.325718790 0.594176471
N -1.546106100 -1.570667148 -3.029691458
N 0.169946879 2.401424646 2.585877895
N 0.746575892 -1.083241820 -0.485694379
C 0.038198113 0.632494390 0.712873816
C 0.085912541 1.621581078 1.739336729
C -0.377254933 -0.564718783 -0.949918687