10

F -1.069969773 2.214208841 1.012443066
C -0.717588246 1.043953180 0.533062816
N -1.659689784 0.122427322 0.502170980
H 1.343568921 1.650665998 0.156363219
H 0.044055462 -2.366904974 -0.747090697
C 0.877608240 -0.395410508 -0.369357347
N -1.364877343 -1.084503531 0.027947374
C -0.137602732 -1.362231612 -0.393720806
F 2.083097696 -0.688669682 -0.833326995
C 0.601397634 0.866464496 0.111508548