10

C -0.352523953 1.114662886 0.758599937
F -0.468988061 2.148056746 1.537552476
N 1.900351644 -1.253060699 -0.429868281
N -1.534043789 0.768368185 0.141751796
H 2.708870649 -0.892113209 0.090594381
N 0.791199148 0.555116534 0.676569760
C -1.406735420 -0.271566093 -0.620478272
O -0.285820246 -0.954367697 -0.827261388
H -2.246857166 -0.668733835 -1.171050072
C 0.894547701 -0.546362698 -0.156410366