10

N 1.055582285 -1.000149250 0.374880731
N -1.283345103 -0.846633673 0.060270563
H -0.340018302 -2.547614336 0.628225088
C 1.186395884 0.240515009 0.091205694
H -1.948529959 0.948108375 -0.510566115
C -0.215541855 -1.507181525 0.368864417
N -1.102492690 0.447177023 -0.269445628
C 0.084427461 1.149080276 -0.289112151
O 0.179464921 2.318175077 -0.578089237
F 2.384057283 0.798523128 0.123766832