10

H -2.794214249 -0.400001079 0.071017690
N 0.144647449 -0.361405760 1.328397632
C 0.519731700 0.463565975 -1.340238571
O 1.563150048 0.309974521 -0.433401346
F 2.358136415 -0.137148961 1.527535558
N -2.118412018 -0.524938285 0.835397065
O 0.724532247 0.818655074 -2.442048311
O -0.704943299 0.162689924 -0.855558693
C 1.268021584 -0.081552029 0.832221568
C -0.960650682 -0.249839365 0.476677805