10

O 2.158309221 0.037989650 0.746035397
C -1.693963885 0.537025213 -0.116685510
C 0.246259660 -0.647421181 -0.425233305
O -2.864284992 0.736517310 -0.290816277
O 0.993582368 -1.612591147 -0.933416247
O 0.308655739 1.276271224 1.024437428
H 1.896144748 -1.502013326 -0.548872590
O -1.050578594 1.431383610 0.724063158
N -0.996018410 -0.513730347 -0.680802584
C 1.001893878 0.256568909 0.501290619