10

N 1.510230422 2.098526716 -0.830585420
N 1.575411201 -1.859177470 0.889541030
C 0.989359319 -0.864711821 0.814667046
C 0.940755486 1.355527163 -0.157739609
H 0.139386415 0.849319577 1.702201009
H -0.440494835 -0.692949951 -1.455408692
C -1.352917194 -0.536911190 -0.844778717
C 0.216570258 0.395302325 0.712112844
O -2.448140621 -0.911161959 -1.131041169
O -1.130160570 0.166236728 0.301031619