10

N -1.480069876 2.128894329 -2.469961643
F 2.492625713 -0.357899249 0.662000358
N 0.802322447 0.571085095 -0.447931886
C 1.204318047 -0.285339773 0.447474718
N -1.433452606 -0.163609520 0.044856202
C 0.320450574 -1.091942668 1.165394187
H 0.663103342 -1.807745934 1.908196092
C -0.530739427 0.559559464 -0.628233254
N -0.988102496 -0.988199472 0.967927516
C -1.050455689 1.435197830 -1.649722338