10

O 0.130874559 -0.751378298 0.868003368
C 0.795981228 0.807060122 -0.888177454
O 0.400991559 1.651595354 -1.648777127
H 1.056446075 1.009482503 1.222219586
C -0.921713829 -1.375643730 0.288913608
C 0.295114309 0.622620165 0.532582819
H -0.631913006 1.205372214 0.679727376
H -1.601645708 -0.677625537 -0.260204971
O -1.103210211 -2.554394960 0.386671215
H 1.579075217 0.062912375 -1.180958390