10

H -1.654154301 -1.857876182 -1.427127004
N -0.549141288 -1.145516872 0.764998555
H -1.079914331 -0.530800283 -2.331736803
C -0.559618592 -0.516722083 -0.384455204
N -1.356508732 -0.895932376 -1.433115840
N 0.223010138 0.618060112 -0.459761292
C 0.713915586 0.644488811 0.741727054
O 0.321941465 -0.343594074 1.535296679
N 2.333073616 2.408802748 1.721051216
C 1.607396126 1.619090080 1.273122907