10

O 0.062450599 -1.335721731 1.018476009
C -0.342122108 0.181301624 -0.556960583
O -1.126721978 -0.895432055 -0.870866179
N -0.037225619 1.418003678 -1.016737342
C -0.906755090 -1.833470583 0.125977755
C 0.359893978 -0.110178038 0.512812674
H 1.395496964 2.737362146 -0.126895428
O -1.431574941 -2.872969151 0.233177900
C 0.858254492 1.814256191 -0.162633449
O 1.168303728 0.896847844 0.843648732