10

C 0.038946144 1.336022854 0.177386642
C -0.051886447 -1.376870394 -0.183586806
H -1.552871823 -1.128591776 1.242626429
C 0.898976982 0.652178168 -0.711071014
N -0.862280667 -0.614337265 0.698438346
H 0.067186520 2.420388699 0.307712018
N -0.850322068 0.699446797 0.901055455
O -0.209020093 -2.569089890 -0.271307945
N 0.876646996 -0.637840569 -0.879652321
H 1.644624591 1.218693137 -1.281600833