10

H 1.129869580 -2.675595045 0.848019302
N -0.141603902 -0.951370537 0.474320084
C 0.262362450 0.222756907 0.189954534
C 1.064099669 -1.635952950 0.608339131
O -0.431358874 1.371345401 0.031324349
N 2.135266781 -0.917078137 0.429620713
O 1.596987486 0.360745758 0.125472173
C -1.577483177 1.375122428 -0.723745167
H -2.021478415 2.379190445 -0.625540853
O -2.016661167 0.470835239 -1.357764244