10

C -0.870614946 0.118591689 0.655460894
C 1.613270760 0.035635371 0.047528274
N -0.191558763 -0.276259243 -1.480813861
C 0.220172018 -0.036181770 -0.238779768
H -0.833659053 0.329917401 1.708952665
C 2.777956247 0.089593209 0.308419675
C -1.950788498 -0.058613781 -0.142290086
H -3.013222456 -0.069046661 0.025067184
O -1.562879205 -0.276250362 -1.409536958
H 3.811323643 0.142614096 0.525991857