10

C -0.163824573 -0.090964727 -0.170790032
C -1.463962555 -0.161554202 -0.782536745
O 1.733132958 -0.081046849 0.637486994
C 0.503187597 0.675944269 0.941692293
C 1.040149927 -0.698763013 -0.336851954
O -2.468737841 0.416042596 -0.409980685
H -1.483661771 -0.825192928 -1.667974234
H 0.161677346 0.465554655 1.957446337
H 1.484925628 -1.442153215 -0.975138724
H 0.657113373 1.742133260 0.806646705