10

H 1.572581172 1.307352901 -0.380797654
N 0.148374721 0.536109388 2.230648279
H -1.357633471 -0.862479985 1.637109280
C -0.042441770 -0.019856641 0.073811978
N 1.063561678 1.193093419 1.590944052
C -0.359345794 -0.522115529 -1.205715060
H -0.831454158 -1.328115225 -3.279008389
N 0.966973543 0.870734394 0.299125344
C -0.610340416 -0.950817108 -2.305310011
C -0.550275445 -0.223905668 1.339192152