10

N 0.344828308 0.511710763 2.742980719
O -1.943242669 1.055808187 0.406341046
N 1.886385083 -0.867231846 0.120840684
H 0.026769277 -0.413977444 -1.595145941
H -1.975300789 0.475588888 -1.543254375
H 2.062630415 -1.162686706 -0.828031480
N -0.201208487 -0.051809411 -0.675212324
C -1.461679101 0.541707397 -0.566297829
C 0.767678559 -0.272279382 0.296405017
C 0.493139327 0.183169246 1.641374588