10

N 0.850745678 1.118322015 1.105077863
C 1.439557791 0.531299472 0.170956135
O 0.881800294 -0.315343738 -0.749637604
N -1.173146367 -0.032355715 0.390559644
H 2.510959625 0.646569490 -0.016129784
C -0.980113506 -1.450849891 -1.523472309
C -0.452277929 -0.541226745 -0.540262520
N -1.378284693 -2.177807808 -2.330461264
C -0.544455647 0.854874253 1.298132420
O -1.154784918 1.366518497 2.195237398