10

C 1.550974846 -0.021054367 0.844485819
N 0.351692587 -0.691388190 0.667764604
C -0.517679811 -0.146980166 -0.140449241
O 2.466117620 -0.378642321 1.512329578
N -0.363305926 1.072358489 -0.823252618
H -1.899401069 -1.615953207 0.050104063
N 0.690008879 1.693189263 -0.719061017
N -1.705062151 -0.732294500 -0.386939555
H -2.289739609 -0.382345825 -1.126163483
O 1.716394663 1.203110576 0.121181719