10

O 0.420013905 0.201245934 -0.519279242
C 0.363218576 -1.168083310 -0.342371941
N -0.310452372 -1.500987291 0.701276779
H -1.411856055 2.281053305 0.919081986
H 0.029223634 2.582505465 0.085604206
N 1.477764130 -2.691990137 -2.084406614
N -0.472327679 1.983102083 0.733373702
C -0.313244730 0.651860058 0.529607296
N -0.767030478 -0.327273071 1.274248362
C 0.984691024 -2.011433363 -1.297134995