10

H -1.218783140 -2.058572769 -0.261386722
H -0.918784201 1.681648970 0.895225644
H -2.123575211 -0.958779871 0.621476293
C -0.248519272 1.000593066 0.415639699
H 2.545204163 0.649262249 -1.040367603
C 1.566500425 0.468086332 -0.593177378
N 0.921335995 -0.658888817 -0.524761677
N -1.203418136 -1.311496258 0.423296392
C -0.267339259 -0.333090097 0.117569618
O 0.947378457 1.521237612 -0.053514294