10

O -0.663969219 -1.173377872 -1.344238997
O 1.479249597 -1.936899424 -1.544810176
H 1.723827124 0.082112476 0.262921810
C -0.401497573 0.339290887 0.167669848
H -1.621909022 1.496280074 1.256832957
N -0.626779735 1.390672684 1.032513261
N 0.817759752 -0.205096826 -0.085824691
N -1.325834990 -0.201276034 -0.559917927
C 0.669640124 -1.196513057 -1.050270557
H -0.050486319 1.404807210 1.865124345