10

C -0.187383071 1.743987799 0.284685820
C -0.153492838 0.344373971 0.087267391
H -0.225723296 3.983920813 0.599853754
C -0.630934417 -1.728969097 -0.219949633
C 0.906026721 -1.541031003 -0.307395130
C -0.201693282 2.938430071 0.450368464
O 1.774925828 -2.311982632 -0.552022398
O 1.097075820 -0.210426688 -0.032332521
N -1.171000481 -0.447730780 0.016023688
O -1.207800984 -2.770572424 -0.326499432