10

N 0.744533837 -2.199919939 -0.182347432
C -0.337795556 -0.296069145 -0.047784083
N -0.441121221 -2.450630665 -0.504318297
C 0.872618079 -0.867146075 0.133658394
O -1.192131996 -1.245728612 -0.432315260
H 1.805930734 -0.447453022 0.461751252
C 0.256063104 2.095965385 0.177045792
O -1.979241252 1.411782026 0.104857072
N 1.085204244 2.904375315 0.205327213
C -0.814060032 1.094824791 0.084125444