10

O -2.038824320 -2.092836618 0.894628108
H 0.546280861 1.528618336 -1.394741416
H -1.163409829 -0.647112966 2.028695822
H 1.864663243 0.392691612 -1.002892494
C -0.475587755 -0.554427803 -0.090840489
O 0.299731731 0.436224252 0.372993857
C -1.302166224 -1.156985521 1.052726626
C 1.141566038 1.108626366 -0.587010026
O -0.531659245 -0.909640968 -1.238767624
H 1.659405351 1.894843459 -0.034792047