10

C -1.948759913 0.383646578 -0.162663087
H -2.959186316 0.677582204 -0.383344680
H -0.039665457 -1.248194337 1.744482875
C -0.415912390 -0.632046580 0.948857844
O -1.768002391 -0.431576312 0.895971656
N -0.872870624 0.716055632 -0.781235516
C 1.508722425 0.116140619 -0.443775207
C 2.664264679 0.160339832 -0.736203432
C 0.138963804 0.055135883 -0.084138833
H 3.692445993 0.202916652 -0.997951508