10

H -0.267054468 -2.099855661 -0.576942801
O -0.926719546 -0.635063171 2.018954754
C 0.027699150 -1.121643662 -0.238914043
O 1.352792859 -0.642969966 -0.617238760
H 0.042070772 0.408645362 -1.971589565
C -0.363463610 -0.342449844 1.017175078
C 0.240000144 0.178356960 -0.928435385
C -0.023691624 1.022573829 0.321856380
H 0.834058881 1.582374334 0.689646959
H -0.915692508 1.650031924 0.285487354