10

H 2.123922110 1.815079331 0.835946143
H -0.294773161 -1.992943764 -1.609582067
N -1.820518374 -1.151530981 -0.364012033
N 0.188097641 -0.327400535 -0.322303206
N 1.469204307 0.167948544 -0.291528255
C 1.338849545 1.148418427 0.535203159
O 0.089877978 1.340841889 1.070893764
N -1.851330161 -0.082713380 0.535187781
C -0.633934259 0.362033427 0.493365616
C -0.609395564 -1.279733419 -0.883170664