10

C -0.575586319 -1.094627619 1.317278266
N 0.814255357 0.822359443 0.696903169
C 0.406357914 0.646970093 -0.509786069
H 1.334875226 2.190680265 -1.044179559
O 0.812077522 1.495045662 -1.473956227
N -0.925344110 -1.246054888 -0.017964149
C -0.457864404 -0.430737197 -0.895194054
H -0.731022120 -0.558151484 -1.944384217
O -0.980885983 -1.766559839 2.220405579
O 0.303136885 -0.058924470 1.650877118