10

N 0.977006912 1.161339641 -0.103948973
H 2.234259129 0.067344733 -1.170143843
N 0.712972462 -1.121065497 -0.740479171
H -0.976755440 -2.107911587 -0.189191267
C -0.178483203 1.146250129 0.483343840
O -2.122979879 -0.045162696 1.099991322
C -0.445510775 -1.169552803 -0.154649869
H -0.500594556 2.071667910 0.933790743
C -1.051253557 -0.034194123 0.550976574
N 1.351338983 0.031284101 -0.709689140