10

H 0.884871721 -2.666092873 -0.050490741
C 0.155578047 1.375083089 -0.675212741
N 1.196366787 -1.894318461 -0.626848757
C 0.550631404 -0.848783791 -0.303468645
H -1.709802389 0.413013250 1.782313228
H 0.273555040 2.341438770 -1.158545971
N -0.403169781 -0.814204812 0.748901963
C -0.980924845 0.288625509 0.990936875
N 0.804524124 0.352139533 -1.039156318
O -0.771630287 1.453100085 0.331571162