10

N -0.100074671 -1.810336947 0.831736207
H 1.331884027 0.730156660 1.853574157
N -0.823567152 -2.287269115 -0.083696134
C 0.158741996 -0.502726674 0.538458109
C -0.446228623 -0.175920054 -0.643469393
N 0.634776473 1.631898165 0.147470310
N 0.790553212 0.595968306 1.016126156
C -0.105715968 1.195995092 -0.871944308
O -1.086577296 -1.232650757 -1.105757475
H -0.353792161 1.854885340 -1.682497382