10

N 1.334793568 1.321092844 -1.122023582
H -0.494299769 -1.841249108 1.032407761
N 0.085812576 -1.713894963 0.213603616
H 0.862958968 -2.349601984 0.156593278
N 0.267844945 1.727532387 -0.587416291
C 0.333230793 -0.427731335 -0.143113315
H -1.823407292 1.811660051 0.594960153
C -0.403664082 0.720832348 0.025198232
O -1.570960641 0.885845304 0.672978878
O 1.407690763 -0.134485468 -0.843188822