10

C -0.520476460 -0.023164975 -0.138746187
O 1.925994635 -0.185459346 0.002333739
C 0.722180307 0.166636303 0.432411492
N 0.528983891 0.812707603 1.624642372
O -0.151479617 -1.057314515 -2.211459398
O -1.415992379 0.493497401 0.733874261
N -0.723862231 0.999429345 1.824023724
H 2.599058867 0.115956627 0.633830369
C -0.929404616 -0.633810580 -1.383799076
H -2.035002232 -0.688477814 -1.517111301