10

H -0.273293227 1.280131578 -1.340012789
C 0.236998111 -0.371500283 1.139898539
O 0.379449606 -0.778985083 2.255039215
C 1.146143675 0.352503508 0.101235211
O 2.262921810 0.798227668 0.113299139
H -1.732552528 0.348390758 0.453461289
H 0.254063219 -0.338205427 -1.807037473
C 0.021876914 0.304099023 -0.939783692
H -1.375135899 -1.285424948 -0.102205716
C -0.920472026 -0.309236765 0.126106277